  18

H    -0.604551   -0.649041    1.531016
H    -2.008579   -0.487636    2.204195
H    -1.891772   -0.459064   -0.365528
H    -2.522415   -0.700737   -1.758942
H    -0.940020    1.512252    0.677025
H    -0.981076    1.631039   -0.822317
H     0.972362   -1.538472    0.472083
H     1.542618   -0.454758    1.343129
H     0.061975   -1.061341   -1.560153
H     1.468441   -0.527110   -1.289834
H     1.149819    1.530247   -0.086948
H     2.682576    1.732888   -0.191425
O    -1.503675   -0.234895    1.426357
O    -1.749489   -0.330314   -1.323514
O    -0.548977    2.022545   -0.050637
O     0.956766   -1.223870    1.399770
O     0.969633   -1.353398   -1.379217
O     2.009570    1.053899   -0.091797
